* NGSPICE file created from user_analog_project_wrapper.ext - technology: sky130A

.subckt sky130_fd_pr__res_xhigh_po_5p73_2AHZHE a_669_4504# a_n1815_n4936# a_n1945_n5066#
X0 a_n1815_n4936# a_669_4504# a_n1945_n5066# sky130_fd_pr__res_xhigh_po w=5.73e+06u l=1.2254e+08u
.ends

.subckt sky130_fd_pr__nfet_01v8_SBZDCA a_n81_n588# a_63_n500# a_n33_n500# a_15_522#
+ a_n227_n674# a_n125_n500#
X0 a_n33_n500# a_n81_n588# a_n125_n500# a_n227_n674# sky130_fd_pr__nfet_01v8 ad=1.65e+12p pd=1.066e+07u as=1.55e+12p ps=1.062e+07u w=5e+06u l=150000u
X1 a_63_n500# a_15_522# a_n33_n500# a_n227_n674# sky130_fd_pr__nfet_01v8 ad=1.55e+12p pd=1.062e+07u as=0p ps=0u w=5e+06u l=150000u
.ends

.subckt sky130_fd_pr__nfet_01v8_UBS3CQ a_n125_n138# a_n183_n50# a_n285_n224# a_125_n50#
X0 a_125_n50# a_n125_n138# a_n183_n50# a_n285_n224# sky130_fd_pr__nfet_01v8 ad=1.45e+11p pd=1.58e+06u as=1.45e+11p ps=1.58e+06u w=500000u l=1.25e+06u
.ends

.subckt sky130_fd_pr__nfet_01v8_lvt_9G3FLA a_159_n100# a_111_n188# a_15_122# a_n273_n188#
+ a_255_n100# a_n611_n274# a_351_n100# a_n417_n100# a_207_122# a_n129_n100# a_n81_n188#
+ a_63_n100# a_n177_122# a_n225_n100# a_n321_n100# a_n369_122# a_n33_n100# a_n509_n100#
+ a_303_n188# a_n465_n188# a_447_n100# a_399_122#
X0 a_63_n100# a_15_122# a_n33_n100# a_n611_n274# sky130_fd_pr__nfet_01v8_lvt ad=3.3e+11p pd=2.66e+06u as=3.3e+11p ps=2.66e+06u w=1e+06u l=150000u
X1 a_n33_n100# a_n81_n188# a_n129_n100# a_n611_n274# sky130_fd_pr__nfet_01v8_lvt ad=0p pd=0u as=3.3e+11p ps=2.66e+06u w=1e+06u l=150000u
X2 a_351_n100# a_303_n188# a_255_n100# a_n611_n274# sky130_fd_pr__nfet_01v8_lvt ad=3.3e+11p pd=2.66e+06u as=3.3e+11p ps=2.66e+06u w=1e+06u l=150000u
X3 a_159_n100# a_111_n188# a_63_n100# a_n611_n274# sky130_fd_pr__nfet_01v8_lvt ad=3.3e+11p pd=2.66e+06u as=0p ps=0u w=1e+06u l=150000u
X4 a_255_n100# a_207_122# a_159_n100# a_n611_n274# sky130_fd_pr__nfet_01v8_lvt ad=0p pd=0u as=0p ps=0u w=1e+06u l=150000u
X5 a_447_n100# a_399_122# a_351_n100# a_n611_n274# sky130_fd_pr__nfet_01v8_lvt ad=3.1e+11p pd=2.62e+06u as=0p ps=0u w=1e+06u l=150000u
X6 a_n321_n100# a_n369_122# a_n417_n100# a_n611_n274# sky130_fd_pr__nfet_01v8_lvt ad=3.3e+11p pd=2.66e+06u as=3.3e+11p ps=2.66e+06u w=1e+06u l=150000u
X7 a_n417_n100# a_n465_n188# a_n509_n100# a_n611_n274# sky130_fd_pr__nfet_01v8_lvt ad=0p pd=0u as=3.1e+11p ps=2.62e+06u w=1e+06u l=150000u
X8 a_n225_n100# a_n273_n188# a_n321_n100# a_n611_n274# sky130_fd_pr__nfet_01v8_lvt ad=3.3e+11p pd=2.66e+06u as=0p ps=0u w=1e+06u l=150000u
X9 a_n129_n100# a_n177_122# a_n225_n100# a_n611_n274# sky130_fd_pr__nfet_01v8_lvt ad=0p pd=0u as=0p ps=0u w=1e+06u l=150000u
.ends

.subckt sky130_fd_sc_hs__dfrtp_4 CLK D RESET_B VGND VPWR Q VNB VPB
X0 VPWR CLK a_313_74# VPB sky130_fd_pr__pfet_01v8 ad=3.172e+12p pd=2.426e+07u as=3.248e+11p ps=2.82e+06u w=1.12e+06u l=150000u
X1 VGND RESET_B a_124_78# VNB sky130_fd_pr__nfet_01v8_lvt ad=2.1303e+12p pd=1.722e+07u as=1.008e+11p ps=1.32e+06u w=420000u l=150000u
X2 a_494_366# a_313_74# VGND VNB sky130_fd_pr__nfet_01v8_lvt ad=2.109e+11p pd=2.05e+06u as=0p ps=0u w=740000u l=150000u
X3 a_37_78# D VPWR VPB sky130_fd_pr__pfet_01v8 ad=2.478e+11p pd=2.86e+06u as=0p ps=0u w=420000u l=150000u
X4 a_834_355# a_699_463# VGND VNB sky130_fd_pr__nfet_01v8_lvt ad=9.435e+11p pd=4.03e+06u as=0p ps=0u w=740000u l=150000u
X5 VPWR a_2010_409# Q VPB sky130_fd_pr__pfet_01v8 ad=0p pd=0u as=7.224e+11p ps=5.77e+06u w=1.12e+06u l=150000u
X6 a_1647_81# a_313_74# a_1350_392# VNB sky130_fd_pr__nfet_01v8_lvt ad=1.008e+11p pd=1.32e+06u as=4.58e+11p ps=3.28e+06u w=420000u l=150000u
X7 VPWR a_1678_395# a_1627_493# VPB sky130_fd_pr__pfet_01v8 ad=0p pd=0u as=1.134e+11p ps=1.38e+06u w=420000u l=150000u
X8 VPWR a_1350_392# a_1678_395# VPB sky130_fd_pr__pfet_01v8 ad=0p pd=0u as=1.26e+11p ps=1.44e+06u w=420000u l=150000u
X9 VGND CLK a_313_74# VNB sky130_fd_pr__nfet_01v8_lvt ad=0p pd=0u as=2.109e+11p ps=2.05e+06u w=740000u l=150000u
X10 a_1627_493# a_494_366# a_1350_392# VPB sky130_fd_pr__pfet_01v8 ad=0p pd=0u as=6.724e+11p ps=4.47e+06u w=420000u l=150000u
X11 VGND RESET_B a_890_138# VNB sky130_fd_pr__nfet_01v8_lvt ad=0p pd=0u as=1.008e+11p ps=1.32e+06u w=420000u l=150000u
X12 a_699_463# RESET_B VPWR VPB sky130_fd_pr__pfet_01v8 ad=2.478e+11p pd=2.86e+06u as=0p ps=0u w=420000u l=150000u
X13 a_1678_395# RESET_B VPWR VPB sky130_fd_pr__pfet_01v8 ad=0p pd=0u as=0p ps=0u w=420000u l=150000u
X14 a_1827_81# RESET_B VGND VNB sky130_fd_pr__nfet_01v8_lvt ad=1.008e+11p pd=1.32e+06u as=0p ps=0u w=420000u l=150000u
X15 Q a_2010_409# VGND VNB sky130_fd_pr__nfet_01v8_lvt ad=4.847e+11p pd=4.27e+06u as=0p ps=0u w=740000u l=150000u
X16 a_1350_392# a_313_74# a_834_355# VPB sky130_fd_pr__pfet_01v8 ad=0p pd=0u as=3e+11p ps=2.6e+06u w=1e+06u l=150000u
X17 a_890_138# a_834_355# a_812_138# VNB sky130_fd_pr__nfet_01v8_lvt ad=0p pd=0u as=1.008e+11p ps=1.32e+06u w=420000u l=150000u
X18 a_834_355# a_699_463# VPWR VPB sky130_fd_pr__pfet_01v8 ad=0p pd=0u as=0p ps=0u w=1e+06u l=150000u
X19 a_812_138# a_494_366# a_699_463# VNB sky130_fd_pr__nfet_01v8_lvt ad=0p pd=0u as=1.47e+11p ps=1.54e+06u w=420000u l=150000u
X20 Q a_2010_409# VGND VNB sky130_fd_pr__nfet_01v8_lvt ad=0p pd=0u as=0p ps=0u w=740000u l=150000u
X21 VGND a_2010_409# Q VNB sky130_fd_pr__nfet_01v8_lvt ad=0p pd=0u as=0p ps=0u w=740000u l=150000u
X22 VPWR a_1350_392# a_2010_409# VPB sky130_fd_pr__pfet_01v8 ad=0p pd=0u as=2.52e+11p ps=2.28e+06u w=840000u l=150000u
X23 Q a_2010_409# VPWR VPB sky130_fd_pr__pfet_01v8 ad=0p pd=0u as=0p ps=0u w=1.12e+06u l=150000u
X24 VGND a_2010_409# Q VNB sky130_fd_pr__nfet_01v8_lvt ad=0p pd=0u as=0p ps=0u w=740000u l=150000u
X25 VGND a_1678_395# a_1647_81# VNB sky130_fd_pr__nfet_01v8_lvt ad=0p pd=0u as=0p ps=0u w=420000u l=150000u
X26 VPWR RESET_B a_37_78# VPB sky130_fd_pr__pfet_01v8 ad=0p pd=0u as=0p ps=0u w=420000u l=150000u
X27 VPWR a_834_355# a_789_463# VPB sky130_fd_pr__pfet_01v8 ad=0p pd=0u as=1.008e+11p ps=1.32e+06u w=420000u l=150000u
X28 a_1678_395# a_1350_392# a_1827_81# VNB sky130_fd_pr__nfet_01v8_lvt ad=1.197e+11p pd=1.41e+06u as=0p ps=0u w=420000u l=150000u
X29 a_1350_392# a_494_366# a_834_355# VNB sky130_fd_pr__nfet_01v8_lvt ad=0p pd=0u as=0p ps=0u w=740000u l=150000u
X30 a_124_78# D a_37_78# VNB sky130_fd_pr__nfet_01v8_lvt ad=0p pd=0u as=2.394e+11p ps=2.82e+06u w=420000u l=150000u
X31 a_699_463# a_313_74# a_37_78# VNB sky130_fd_pr__nfet_01v8_lvt ad=0p pd=0u as=0p ps=0u w=420000u l=150000u
X32 a_789_463# a_313_74# a_699_463# VPB sky130_fd_pr__pfet_01v8 ad=0p pd=0u as=0p ps=0u w=420000u l=150000u
X33 a_2010_409# a_1350_392# VPWR VPB sky130_fd_pr__pfet_01v8 ad=0p pd=0u as=0p ps=0u w=840000u l=150000u
X34 VPWR a_2010_409# Q VPB sky130_fd_pr__pfet_01v8 ad=0p pd=0u as=0p ps=0u w=1.12e+06u l=150000u
X35 a_699_463# a_494_366# a_37_78# VPB sky130_fd_pr__pfet_01v8 ad=0p pd=0u as=0p ps=0u w=420000u l=150000u
X36 Q a_2010_409# VPWR VPB sky130_fd_pr__pfet_01v8 ad=0p pd=0u as=0p ps=0u w=1.12e+06u l=150000u
X37 a_494_366# a_313_74# VPWR VPB sky130_fd_pr__pfet_01v8 ad=3.192e+11p pd=2.81e+06u as=0p ps=0u w=1.12e+06u l=150000u
X38 a_2010_409# a_1350_392# VGND VNB sky130_fd_pr__nfet_01v8_lvt ad=2.109e+11p pd=2.05e+06u as=0p ps=0u w=740000u l=150000u
.ends

.subckt sky130_fd_sc_hs__nand3_1 A B C VGND VPWR Y VNB VPB
X0 a_233_74# B a_155_74# VNB sky130_fd_pr__nfet_01v8_lvt ad=3.108e+11p pd=2.32e+06u as=1.776e+11p ps=1.96e+06u w=740000u l=150000u
X1 VPWR B Y VPB sky130_fd_pr__pfet_01v8 ad=8.904e+11p pd=6.07e+06u as=6.664e+11p ps=5.67e+06u w=1.12e+06u l=150000u
X2 Y C VPWR VPB sky130_fd_pr__pfet_01v8 ad=0p pd=0u as=0p ps=0u w=1.12e+06u l=150000u
X3 Y A VPWR VPB sky130_fd_pr__pfet_01v8 ad=0p pd=0u as=0p ps=0u w=1.12e+06u l=150000u
X4 a_155_74# C VGND VNB sky130_fd_pr__nfet_01v8_lvt ad=0p pd=0u as=2.109e+11p ps=2.05e+06u w=740000u l=150000u
X5 Y A a_233_74# VNB sky130_fd_pr__nfet_01v8_lvt ad=2.109e+11p pd=2.05e+06u as=0p ps=0u w=740000u l=150000u
.ends

.subckt sky130_fd_pr__pfet_g5v0d10v5_AJQB7U a_n50_n197# a_50_n100# w_n308_n397# a_n108_n100#
X0 a_50_n100# a_n50_n197# a_n108_n100# w_n308_n397# sky130_fd_pr__pfet_g5v0d10v5 ad=2.9e+11p pd=2.58e+06u as=2.9e+11p ps=2.58e+06u w=1e+06u l=500000u
.ends

.subckt sky130_fd_pr__res_xhigh_po_0p35_RJUBBE a_n35_165# a_n35_n597# a_n165_n727#
X0 a_n35_n597# a_n35_165# a_n165_n727# sky130_fd_pr__res_xhigh_po_0p35 l=1.65e+06u
.ends

.subckt sky130_fd_sc_hs__inv_16 A VGND VPWR Y VNB VPB
X0 Y A VPWR VPB sky130_fd_pr__pfet_01v8 ad=2.7216e+12p pd=2.278e+07u as=3.4272e+12p ps=2.628e+07u w=1.12e+06u l=150000u
X1 Y A VPWR VPB sky130_fd_pr__pfet_01v8 ad=0p pd=0u as=0p ps=0u w=1.12e+06u l=150000u
X2 VPWR A Y VPB sky130_fd_pr__pfet_01v8 ad=0p pd=0u as=0p ps=0u w=1.12e+06u l=150000u
X3 Y A VPWR VPB sky130_fd_pr__pfet_01v8 ad=0p pd=0u as=0p ps=0u w=1.12e+06u l=150000u
X4 Y A VGND VNB sky130_fd_pr__nfet_01v8_lvt ad=1.6576e+12p pd=1.632e+07u as=2.2718e+12p ps=1.946e+07u w=740000u l=150000u
X5 VGND A Y VNB sky130_fd_pr__nfet_01v8_lvt ad=0p pd=0u as=0p ps=0u w=740000u l=150000u
X6 Y A VPWR VPB sky130_fd_pr__pfet_01v8 ad=0p pd=0u as=0p ps=0u w=1.12e+06u l=150000u
X7 VGND A Y VNB sky130_fd_pr__nfet_01v8_lvt ad=0p pd=0u as=0p ps=0u w=740000u l=150000u
X8 VPWR A Y VPB sky130_fd_pr__pfet_01v8 ad=0p pd=0u as=0p ps=0u w=1.12e+06u l=150000u
X9 VPWR A Y VPB sky130_fd_pr__pfet_01v8 ad=0p pd=0u as=0p ps=0u w=1.12e+06u l=150000u
X10 Y A VPWR VPB sky130_fd_pr__pfet_01v8 ad=0p pd=0u as=0p ps=0u w=1.12e+06u l=150000u
X11 Y A VGND VNB sky130_fd_pr__nfet_01v8_lvt ad=0p pd=0u as=0p ps=0u w=740000u l=150000u
X12 VGND A Y VNB sky130_fd_pr__nfet_01v8_lvt ad=0p pd=0u as=0p ps=0u w=740000u l=150000u
X13 VGND A Y VNB sky130_fd_pr__nfet_01v8_lvt ad=0p pd=0u as=0p ps=0u w=740000u l=150000u
X14 VPWR A Y VPB sky130_fd_pr__pfet_01v8 ad=0p pd=0u as=0p ps=0u w=1.12e+06u l=150000u
X15 Y A VGND VNB sky130_fd_pr__nfet_01v8_lvt ad=0p pd=0u as=0p ps=0u w=740000u l=150000u
X16 Y A VPWR VPB sky130_fd_pr__pfet_01v8 ad=0p pd=0u as=0p ps=0u w=1.12e+06u l=150000u
X17 VGND A Y VNB sky130_fd_pr__nfet_01v8_lvt ad=0p pd=0u as=0p ps=0u w=740000u l=150000u
X18 VPWR A Y VPB sky130_fd_pr__pfet_01v8 ad=0p pd=0u as=0p ps=0u w=1.12e+06u l=150000u
X19 Y A VGND VNB sky130_fd_pr__nfet_01v8_lvt ad=0p pd=0u as=0p ps=0u w=740000u l=150000u
X20 VPWR A Y VPB sky130_fd_pr__pfet_01v8 ad=0p pd=0u as=0p ps=0u w=1.12e+06u l=150000u
X21 Y A VPWR VPB sky130_fd_pr__pfet_01v8 ad=0p pd=0u as=0p ps=0u w=1.12e+06u l=150000u
X22 VPWR A Y VPB sky130_fd_pr__pfet_01v8 ad=0p pd=0u as=0p ps=0u w=1.12e+06u l=150000u
X23 VGND A Y VNB sky130_fd_pr__nfet_01v8_lvt ad=0p pd=0u as=0p ps=0u w=740000u l=150000u
X24 Y A VPWR VPB sky130_fd_pr__pfet_01v8 ad=0p pd=0u as=0p ps=0u w=1.12e+06u l=150000u
X25 VGND A Y VNB sky130_fd_pr__nfet_01v8_lvt ad=0p pd=0u as=0p ps=0u w=740000u l=150000u
X26 Y A VGND VNB sky130_fd_pr__nfet_01v8_lvt ad=0p pd=0u as=0p ps=0u w=740000u l=150000u
X27 VGND A Y VNB sky130_fd_pr__nfet_01v8_lvt ad=0p pd=0u as=0p ps=0u w=740000u l=150000u
X28 Y A VGND VNB sky130_fd_pr__nfet_01v8_lvt ad=0p pd=0u as=0p ps=0u w=740000u l=150000u
X29 VPWR A Y VPB sky130_fd_pr__pfet_01v8 ad=0p pd=0u as=0p ps=0u w=1.12e+06u l=150000u
X30 Y A VGND VNB sky130_fd_pr__nfet_01v8_lvt ad=0p pd=0u as=0p ps=0u w=740000u l=150000u
X31 Y A VGND VNB sky130_fd_pr__nfet_01v8_lvt ad=0p pd=0u as=0p ps=0u w=740000u l=150000u
.ends

.subckt sky130_fd_pr__nfet_g5v0d10v5_RX3AJQ a_50_n100# a_n242_n322# a_n108_n100# a_n50_n188#
X0 a_50_n100# a_n50_n188# a_n108_n100# a_n242_n322# sky130_fd_pr__nfet_g5v0d10v5 ad=2.9e+11p pd=2.58e+06u as=2.9e+11p ps=2.58e+06u w=1e+06u l=500000u
.ends

.subckt sky130_fd_pr__nfet_g5v0d10v5_KH736R a_2025_n400# a_4237_n400# a_1235_n400#
+ a_3447_n400# a_5659_n400# a_n287_n488# a_761_n400# a_n4079_n488# a_2657_n400# a_4869_n400#
+ a_819_n488# a_5185_n400# a_n1077_n488# a_n3289_n488# a_1867_n400# a_345_n488# a_2183_n400#
+ a_4395_n400# a_n29_n400# a_n2499_n488# a_1393_n400# a_n919_n488# a_977_n488# a_n5027_n488#
+ a_n6483_n622# a_3605_n400# a_5817_n400# a_n445_n488# a_6133_n400# a_3189_n488# a_n1709_n488#
+ a_n187_n400# a_n2025_n488# a_n4237_n488# a_2815_n400# a_3131_n400# a_5343_n400#
+ a_2399_n488# a_n1235_n488# a_n3447_n488# a_n5659_n488# a_n3189_n400# a_2341_n400#
+ a_503_n488# a_4553_n400# a_n2657_n488# a_n4869_n488# a_n2399_n400# a_n5185_n488#
+ a_1551_n400# a_3763_n400# a_5975_n400# a_1609_n488# a_4137_n488# a_n819_n400# a_6291_n400#
+ a_n1867_n488# a_n2183_n488# a_n4395_n488# a_2973_n400# a_1135_n488# a_n603_n488#
+ a_5559_n488# a_n345_n400# a_3347_n488# a_n1393_n488# a_n1609_n400# a_n4137_n400#
+ a_661_n488# a_4769_n488# a_n6349_n400# a_5501_n400# a_2557_n488# a_5085_n488# a_n3605_n488#
+ a_n5817_n488# a_n1135_n400# a_n6133_n488# a_n5559_n400# a_n3347_n400# a_4711_n400#
+ a_1767_n488# a_3979_n488# a_2083_n488# a_4295_n488# a_n977_n400# a_n2815_n488# a_n3131_n488#
+ a_n4769_n400# a_n2557_n400# a_n5343_n488# a_3921_n400# a_n761_n488# a_n5085_n400#
+ a_1293_n488# a_n1767_n400# a_n2341_n488# a_n4553_n488# a_n3979_n400# a_n4295_n400#
+ a_n2083_n400# a_3505_n488# a_5717_n488# a_n503_n400# a_n1551_n488# a_n3763_n488#
+ a_6033_n488# a_129_n400# a_n5975_n488# a_n1293_n400# a_n6291_n488# a_4927_n488#
+ a_2715_n488# a_5243_n488# a_3031_n488# a_n2973_n488# a_n3505_n400# a_n5717_n400#
+ a_1925_n488# a_n6033_n400# a_2241_n488# a_4453_n488# a_n5501_n488# a_n4927_n400#
+ a_n2715_n400# a_n5243_n400# a_n3031_n400# a_5875_n488# a_3663_n488# a_1451_n488#
+ a_6191_n488# a_n661_n400# a_n1925_n400# a_287_n400# a_n4711_n488# a_n2241_n400#
+ a_n4453_n400# a_2873_n488# a_n3921_n488# a_n5875_n400# a_n3663_n400# a_n1451_n400#
+ a_n6191_n400# a_5401_n488# a_n2873_n400# a_4611_n488# a_919_n400# a_n5401_n400#
+ a_3821_n488# a_445_n400# a_n4611_n400# a_n3821_n400# a_4079_n400# a_1077_n400# a_3289_n400#
+ a_29_n488# a_2499_n400# a_n129_n488# a_603_n400# a_187_n488# a_5027_n400# a_1709_n400#
X0 a_n5401_n400# a_n5501_n488# a_n5559_n400# a_n6483_n622# sky130_fd_pr__nfet_g5v0d10v5 ad=1.16e+12p pd=8.58e+06u as=1.16e+12p ps=8.58e+06u w=4e+06u l=500000u
X1 a_n2557_n400# a_n2657_n488# a_n2715_n400# a_n6483_n622# sky130_fd_pr__nfet_g5v0d10v5 ad=1.16e+12p pd=8.58e+06u as=1.16e+12p ps=8.58e+06u w=4e+06u l=500000u
X2 a_n503_n400# a_n603_n488# a_n661_n400# a_n6483_n622# sky130_fd_pr__nfet_g5v0d10v5 ad=1.16e+12p pd=8.58e+06u as=1.16e+12p ps=8.58e+06u w=4e+06u l=500000u
X3 a_2657_n400# a_2557_n488# a_2499_n400# a_n6483_n622# sky130_fd_pr__nfet_g5v0d10v5 ad=1.16e+12p pd=8.58e+06u as=1.16e+12p ps=8.58e+06u w=4e+06u l=500000u
X4 a_5501_n400# a_5401_n488# a_5343_n400# a_n6483_n622# sky130_fd_pr__nfet_g5v0d10v5 ad=1.16e+12p pd=8.58e+06u as=1.16e+12p ps=8.58e+06u w=4e+06u l=500000u
X5 a_n29_n400# a_n129_n488# a_n187_n400# a_n6483_n622# sky130_fd_pr__nfet_g5v0d10v5 ad=1.16e+12p pd=8.58e+06u as=1.16e+12p ps=8.58e+06u w=4e+06u l=500000u
X6 a_603_n400# a_503_n488# a_445_n400# a_n6483_n622# sky130_fd_pr__nfet_g5v0d10v5 ad=1.16e+12p pd=8.58e+06u as=1.16e+12p ps=8.58e+06u w=4e+06u l=500000u
X7 a_n4927_n400# a_n5027_n488# a_n5085_n400# a_n6483_n622# sky130_fd_pr__nfet_g5v0d10v5 ad=1.16e+12p pd=8.58e+06u as=1.16e+12p ps=8.58e+06u w=4e+06u l=500000u
X8 a_n4453_n400# a_n4553_n488# a_n4611_n400# a_n6483_n622# sky130_fd_pr__nfet_g5v0d10v5 ad=1.16e+12p pd=8.58e+06u as=1.16e+12p ps=8.58e+06u w=4e+06u l=500000u
X9 a_4553_n400# a_4453_n488# a_4395_n400# a_n6483_n622# sky130_fd_pr__nfet_g5v0d10v5 ad=1.16e+12p pd=8.58e+06u as=1.16e+12p ps=8.58e+06u w=4e+06u l=500000u
X10 a_n3979_n400# a_n4079_n488# a_n4137_n400# a_n6483_n622# sky130_fd_pr__nfet_g5v0d10v5 ad=1.16e+12p pd=8.58e+06u as=1.16e+12p ps=8.58e+06u w=4e+06u l=500000u
X11 a_n1135_n400# a_n1235_n488# a_n1293_n400# a_n6483_n622# sky130_fd_pr__nfet_g5v0d10v5 ad=1.16e+12p pd=8.58e+06u as=1.16e+12p ps=8.58e+06u w=4e+06u l=500000u
X12 a_1235_n400# a_1135_n488# a_1077_n400# a_n6483_n622# sky130_fd_pr__nfet_g5v0d10v5 ad=1.16e+12p pd=8.58e+06u as=1.16e+12p ps=8.58e+06u w=4e+06u l=500000u
X13 a_n5559_n400# a_n5659_n488# a_n5717_n400# a_n6483_n622# sky130_fd_pr__nfet_g5v0d10v5 ad=0p pd=0u as=1.16e+12p ps=8.58e+06u w=4e+06u l=500000u
X14 a_n2715_n400# a_n2815_n488# a_n2873_n400# a_n6483_n622# sky130_fd_pr__nfet_g5v0d10v5 ad=0p pd=0u as=1.16e+12p ps=8.58e+06u w=4e+06u l=500000u
X15 a_2815_n400# a_2715_n488# a_2657_n400# a_n6483_n622# sky130_fd_pr__nfet_g5v0d10v5 ad=1.16e+12p pd=8.58e+06u as=0p ps=0u w=4e+06u l=500000u
X16 a_5659_n400# a_5559_n488# a_5501_n400# a_n6483_n622# sky130_fd_pr__nfet_g5v0d10v5 ad=1.16e+12p pd=8.58e+06u as=0p ps=0u w=4e+06u l=500000u
X17 a_3131_n400# a_3031_n488# a_2973_n400# a_n6483_n622# sky130_fd_pr__nfet_g5v0d10v5 ad=1.16e+12p pd=8.58e+06u as=1.16e+12p ps=8.58e+06u w=4e+06u l=500000u
X18 a_n3031_n400# a_n3131_n488# a_n3189_n400# a_n6483_n622# sky130_fd_pr__nfet_g5v0d10v5 ad=1.16e+12p pd=8.58e+06u as=1.16e+12p ps=8.58e+06u w=4e+06u l=500000u
X19 a_n4611_n400# a_n4711_n488# a_n4769_n400# a_n6483_n622# sky130_fd_pr__nfet_g5v0d10v5 ad=0p pd=0u as=1.16e+12p ps=8.58e+06u w=4e+06u l=500000u
X20 a_n1767_n400# a_n1867_n488# a_n1925_n400# a_n6483_n622# sky130_fd_pr__nfet_g5v0d10v5 ad=1.16e+12p pd=8.58e+06u as=1.16e+12p ps=8.58e+06u w=4e+06u l=500000u
X21 a_1867_n400# a_1767_n488# a_1709_n400# a_n6483_n622# sky130_fd_pr__nfet_g5v0d10v5 ad=1.16e+12p pd=8.58e+06u as=1.16e+12p ps=8.58e+06u w=4e+06u l=500000u
X22 a_4711_n400# a_4611_n488# a_4553_n400# a_n6483_n622# sky130_fd_pr__nfet_g5v0d10v5 ad=1.16e+12p pd=8.58e+06u as=0p ps=0u w=4e+06u l=500000u
X23 a_n2083_n400# a_n2183_n488# a_n2241_n400# a_n6483_n622# sky130_fd_pr__nfet_g5v0d10v5 ad=1.16e+12p pd=8.58e+06u as=1.16e+12p ps=8.58e+06u w=4e+06u l=500000u
X24 a_2183_n400# a_2083_n488# a_2025_n400# a_n6483_n622# sky130_fd_pr__nfet_g5v0d10v5 ad=1.16e+12p pd=8.58e+06u as=1.16e+12p ps=8.58e+06u w=4e+06u l=500000u
X25 a_n4137_n400# a_n4237_n488# a_n4295_n400# a_n6483_n622# sky130_fd_pr__nfet_g5v0d10v5 ad=0p pd=0u as=1.16e+12p ps=8.58e+06u w=4e+06u l=500000u
X26 a_n3663_n400# a_n3763_n488# a_n3821_n400# a_n6483_n622# sky130_fd_pr__nfet_g5v0d10v5 ad=1.16e+12p pd=8.58e+06u as=1.16e+12p ps=8.58e+06u w=4e+06u l=500000u
X27 a_3763_n400# a_3663_n488# a_3605_n400# a_n6483_n622# sky130_fd_pr__nfet_g5v0d10v5 ad=1.16e+12p pd=8.58e+06u as=1.16e+12p ps=8.58e+06u w=4e+06u l=500000u
X28 a_4237_n400# a_4137_n488# a_4079_n400# a_n6483_n622# sky130_fd_pr__nfet_g5v0d10v5 ad=1.16e+12p pd=8.58e+06u as=1.16e+12p ps=8.58e+06u w=4e+06u l=500000u
X29 a_n5717_n400# a_n5817_n488# a_n5875_n400# a_n6483_n622# sky130_fd_pr__nfet_g5v0d10v5 ad=0p pd=0u as=1.16e+12p ps=8.58e+06u w=4e+06u l=500000u
X30 a_n819_n400# a_n919_n488# a_n977_n400# a_n6483_n622# sky130_fd_pr__nfet_g5v0d10v5 ad=1.16e+12p pd=8.58e+06u as=1.16e+12p ps=8.58e+06u w=4e+06u l=500000u
X31 a_5817_n400# a_5717_n488# a_5659_n400# a_n6483_n622# sky130_fd_pr__nfet_g5v0d10v5 ad=1.16e+12p pd=8.58e+06u as=0p ps=0u w=4e+06u l=500000u
X32 a_n6033_n400# a_n6133_n488# a_n6191_n400# a_n6483_n622# sky130_fd_pr__nfet_g5v0d10v5 ad=1.16e+12p pd=8.58e+06u as=1.16e+12p ps=8.58e+06u w=4e+06u l=500000u
X33 a_n3189_n400# a_n3289_n488# a_n3347_n400# a_n6483_n622# sky130_fd_pr__nfet_g5v0d10v5 ad=0p pd=0u as=1.16e+12p ps=8.58e+06u w=4e+06u l=500000u
X34 a_n661_n400# a_n761_n488# a_n819_n400# a_n6483_n622# sky130_fd_pr__nfet_g5v0d10v5 ad=0p pd=0u as=0p ps=0u w=4e+06u l=500000u
X35 a_3289_n400# a_3189_n488# a_3131_n400# a_n6483_n622# sky130_fd_pr__nfet_g5v0d10v5 ad=1.16e+12p pd=8.58e+06u as=0p ps=0u w=4e+06u l=500000u
X36 a_6133_n400# a_6033_n488# a_5975_n400# a_n6483_n622# sky130_fd_pr__nfet_g5v0d10v5 ad=1.16e+12p pd=8.58e+06u as=1.16e+12p ps=8.58e+06u w=4e+06u l=500000u
X37 a_919_n400# a_819_n488# a_761_n400# a_n6483_n622# sky130_fd_pr__nfet_g5v0d10v5 ad=1.16e+12p pd=8.58e+06u as=1.16e+12p ps=8.58e+06u w=4e+06u l=500000u
X38 a_n4769_n400# a_n4869_n488# a_n4927_n400# a_n6483_n622# sky130_fd_pr__nfet_g5v0d10v5 ad=0p pd=0u as=0p ps=0u w=4e+06u l=500000u
X39 a_n187_n400# a_n287_n488# a_n345_n400# a_n6483_n622# sky130_fd_pr__nfet_g5v0d10v5 ad=0p pd=0u as=1.16e+12p ps=8.58e+06u w=4e+06u l=500000u
X40 a_761_n400# a_661_n488# a_603_n400# a_n6483_n622# sky130_fd_pr__nfet_g5v0d10v5 ad=0p pd=0u as=0p ps=0u w=4e+06u l=500000u
X41 a_2025_n400# a_1925_n488# a_1867_n400# a_n6483_n622# sky130_fd_pr__nfet_g5v0d10v5 ad=0p pd=0u as=0p ps=0u w=4e+06u l=500000u
X42 a_4869_n400# a_4769_n488# a_4711_n400# a_n6483_n622# sky130_fd_pr__nfet_g5v0d10v5 ad=1.16e+12p pd=8.58e+06u as=0p ps=0u w=4e+06u l=500000u
X43 a_n5085_n400# a_n5185_n488# a_n5243_n400# a_n6483_n622# sky130_fd_pr__nfet_g5v0d10v5 ad=0p pd=0u as=1.16e+12p ps=8.58e+06u w=4e+06u l=500000u
X44 a_n2241_n400# a_n2341_n488# a_n2399_n400# a_n6483_n622# sky130_fd_pr__nfet_g5v0d10v5 ad=0p pd=0u as=1.16e+12p ps=8.58e+06u w=4e+06u l=500000u
X45 a_2341_n400# a_2241_n488# a_2183_n400# a_n6483_n622# sky130_fd_pr__nfet_g5v0d10v5 ad=1.16e+12p pd=8.58e+06u as=0p ps=0u w=4e+06u l=500000u
X46 a_5185_n400# a_5085_n488# a_5027_n400# a_n6483_n622# sky130_fd_pr__nfet_g5v0d10v5 ad=1.16e+12p pd=8.58e+06u as=1.16e+12p ps=8.58e+06u w=4e+06u l=500000u
X47 a_n3821_n400# a_n3921_n488# a_n3979_n400# a_n6483_n622# sky130_fd_pr__nfet_g5v0d10v5 ad=0p pd=0u as=0p ps=0u w=4e+06u l=500000u
X48 a_287_n400# a_187_n488# a_129_n400# a_n6483_n622# sky130_fd_pr__nfet_g5v0d10v5 ad=1.16e+12p pd=8.58e+06u as=1.16e+12p ps=8.58e+06u w=4e+06u l=500000u
X49 a_3921_n400# a_3821_n488# a_3763_n400# a_n6483_n622# sky130_fd_pr__nfet_g5v0d10v5 ad=1.16e+12p pd=8.58e+06u as=0p ps=0u w=4e+06u l=500000u
X50 a_n1293_n400# a_n1393_n488# a_n1451_n400# a_n6483_n622# sky130_fd_pr__nfet_g5v0d10v5 ad=0p pd=0u as=1.16e+12p ps=8.58e+06u w=4e+06u l=500000u
X51 a_1393_n400# a_1293_n488# a_1235_n400# a_n6483_n622# sky130_fd_pr__nfet_g5v0d10v5 ad=1.16e+12p pd=8.58e+06u as=0p ps=0u w=4e+06u l=500000u
X52 a_n3347_n400# a_n3447_n488# a_n3505_n400# a_n6483_n622# sky130_fd_pr__nfet_g5v0d10v5 ad=0p pd=0u as=1.16e+12p ps=8.58e+06u w=4e+06u l=500000u
X53 a_2973_n400# a_2873_n488# a_2815_n400# a_n6483_n622# sky130_fd_pr__nfet_g5v0d10v5 ad=0p pd=0u as=0p ps=0u w=4e+06u l=500000u
X54 a_3447_n400# a_3347_n488# a_3289_n400# a_n6483_n622# sky130_fd_pr__nfet_g5v0d10v5 ad=1.16e+12p pd=8.58e+06u as=0p ps=0u w=4e+06u l=500000u
X55 a_n2873_n400# a_n2973_n488# a_n3031_n400# a_n6483_n622# sky130_fd_pr__nfet_g5v0d10v5 ad=0p pd=0u as=0p ps=0u w=4e+06u l=500000u
X56 a_5027_n400# a_4927_n488# a_4869_n400# a_n6483_n622# sky130_fd_pr__nfet_g5v0d10v5 ad=0p pd=0u as=0p ps=0u w=4e+06u l=500000u
X57 a_n5243_n400# a_n5343_n488# a_n5401_n400# a_n6483_n622# sky130_fd_pr__nfet_g5v0d10v5 ad=0p pd=0u as=0p ps=0u w=4e+06u l=500000u
X58 a_n2399_n400# a_n2499_n488# a_n2557_n400# a_n6483_n622# sky130_fd_pr__nfet_g5v0d10v5 ad=0p pd=0u as=0p ps=0u w=4e+06u l=500000u
X59 a_n345_n400# a_n445_n488# a_n503_n400# a_n6483_n622# sky130_fd_pr__nfet_g5v0d10v5 ad=0p pd=0u as=0p ps=0u w=4e+06u l=500000u
X60 a_2499_n400# a_2399_n488# a_2341_n400# a_n6483_n622# sky130_fd_pr__nfet_g5v0d10v5 ad=0p pd=0u as=0p ps=0u w=4e+06u l=500000u
X61 a_5343_n400# a_5243_n488# a_5185_n400# a_n6483_n622# sky130_fd_pr__nfet_g5v0d10v5 ad=0p pd=0u as=0p ps=0u w=4e+06u l=500000u
X62 a_129_n400# a_29_n488# a_n29_n400# a_n6483_n622# sky130_fd_pr__nfet_g5v0d10v5 ad=0p pd=0u as=0p ps=0u w=4e+06u l=500000u
X63 a_n1609_n400# a_n1709_n488# a_n1767_n400# a_n6483_n622# sky130_fd_pr__nfet_g5v0d10v5 ad=1.16e+12p pd=8.58e+06u as=0p ps=0u w=4e+06u l=500000u
X64 a_445_n400# a_345_n488# a_287_n400# a_n6483_n622# sky130_fd_pr__nfet_g5v0d10v5 ad=0p pd=0u as=0p ps=0u w=4e+06u l=500000u
X65 a_1709_n400# a_1609_n488# a_1551_n400# a_n6483_n622# sky130_fd_pr__nfet_g5v0d10v5 ad=0p pd=0u as=1.16e+12p ps=8.58e+06u w=4e+06u l=500000u
X66 a_4079_n400# a_3979_n488# a_3921_n400# a_n6483_n622# sky130_fd_pr__nfet_g5v0d10v5 ad=0p pd=0u as=0p ps=0u w=4e+06u l=500000u
X67 a_n4295_n400# a_n4395_n488# a_n4453_n400# a_n6483_n622# sky130_fd_pr__nfet_g5v0d10v5 ad=0p pd=0u as=0p ps=0u w=4e+06u l=500000u
X68 a_n1925_n400# a_n2025_n488# a_n2083_n400# a_n6483_n622# sky130_fd_pr__nfet_g5v0d10v5 ad=0p pd=0u as=0p ps=0u w=4e+06u l=500000u
X69 a_n1451_n400# a_n1551_n488# a_n1609_n400# a_n6483_n622# sky130_fd_pr__nfet_g5v0d10v5 ad=0p pd=0u as=0p ps=0u w=4e+06u l=500000u
X70 a_1551_n400# a_1451_n488# a_1393_n400# a_n6483_n622# sky130_fd_pr__nfet_g5v0d10v5 ad=0p pd=0u as=0p ps=0u w=4e+06u l=500000u
X71 a_4395_n400# a_4295_n488# a_4237_n400# a_n6483_n622# sky130_fd_pr__nfet_g5v0d10v5 ad=0p pd=0u as=0p ps=0u w=4e+06u l=500000u
X72 a_n5875_n400# a_n5975_n488# a_n6033_n400# a_n6483_n622# sky130_fd_pr__nfet_g5v0d10v5 ad=0p pd=0u as=0p ps=0u w=4e+06u l=500000u
X73 a_3605_n400# a_3505_n488# a_3447_n400# a_n6483_n622# sky130_fd_pr__nfet_g5v0d10v5 ad=0p pd=0u as=0p ps=0u w=4e+06u l=500000u
X74 a_5975_n400# a_5875_n488# a_5817_n400# a_n6483_n622# sky130_fd_pr__nfet_g5v0d10v5 ad=0p pd=0u as=0p ps=0u w=4e+06u l=500000u
X75 a_n3505_n400# a_n3605_n488# a_n3663_n400# a_n6483_n622# sky130_fd_pr__nfet_g5v0d10v5 ad=0p pd=0u as=0p ps=0u w=4e+06u l=500000u
X76 a_6291_n400# a_6191_n488# a_6133_n400# a_n6483_n622# sky130_fd_pr__nfet_g5v0d10v5 ad=1.16e+12p pd=8.58e+06u as=0p ps=0u w=4e+06u l=500000u
X77 a_n6191_n400# a_n6291_n488# a_n6349_n400# a_n6483_n622# sky130_fd_pr__nfet_g5v0d10v5 ad=0p pd=0u as=1.16e+12p ps=8.58e+06u w=4e+06u l=500000u
X78 a_n977_n400# a_n1077_n488# a_n1135_n400# a_n6483_n622# sky130_fd_pr__nfet_g5v0d10v5 ad=0p pd=0u as=0p ps=0u w=4e+06u l=500000u
X79 a_1077_n400# a_977_n488# a_919_n400# a_n6483_n622# sky130_fd_pr__nfet_g5v0d10v5 ad=0p pd=0u as=0p ps=0u w=4e+06u l=500000u
.ends

.subckt sky130_fd_pr__cap_mim_m3_2_L4DLLG m4_n20156_n6250# c2_n20056_n6150#
X0 c2_n20056_n6150# m4_n20156_n6250# sky130_fd_pr__cap_mim_m3_2 l=3e+07u w=3.003e+07u
X1 c2_n20056_n6150# m4_n20156_n6250# sky130_fd_pr__cap_mim_m3_2 l=3e+07u w=3e+07u
X2 c2_n20056_n6150# m4_n20156_n6250# sky130_fd_pr__cap_mim_m3_2 l=3e+07u w=3e+07u
X3 c2_n20056_n6150# m4_n20156_n6250# sky130_fd_pr__cap_mim_m3_2 l=3e+07u w=3e+07u
X4 c2_n20056_n6150# m4_n20156_n6250# sky130_fd_pr__cap_mim_m3_2 l=3e+07u w=3.003e+07u
X5 c2_n20056_n6150# m4_n20156_n6250# sky130_fd_pr__cap_mim_m3_2 l=3e+07u w=3e+07u
X6 c2_n20056_n6150# m4_n20156_n6250# sky130_fd_pr__cap_mim_m3_2 l=3e+07u w=3e+07u
X7 c2_n20056_n6150# m4_n20156_n6250# sky130_fd_pr__cap_mim_m3_2 l=3e+07u w=3e+07u
X8 c2_n20056_n6150# m4_n20156_n6250# sky130_fd_pr__cap_mim_m3_2 l=3e+07u w=3e+07u
X9 c2_n20056_n6150# m4_n20156_n6250# sky130_fd_pr__cap_mim_m3_2 l=3e+07u w=3e+07u
X10 c2_n20056_n6150# m4_n20156_n6250# sky130_fd_pr__cap_mim_m3_2 l=3e+07u w=3e+07u
X11 c2_n20056_n6150# m4_n20156_n6250# sky130_fd_pr__cap_mim_m3_2 l=3e+07u w=3e+07u
.ends

.subckt sky130_fd_pr__nfet_01v8_lvt_R5S7KJ a_n129_n200# a_n81_n288# a_63_n200# a_n177_222#
+ a_n225_n200# a_n321_n200# a_n369_222# a_n33_n200# a_n509_n200# a_303_n288# a_n465_n288#
+ a_447_n200# a_399_222# a_159_n200# a_111_n288# a_15_222# a_n273_n288# a_255_n200#
+ a_n611_n374# a_351_n200# a_207_222# a_n417_n200#
X0 a_n33_n200# a_n81_n288# a_n129_n200# a_n611_n374# sky130_fd_pr__nfet_01v8_lvt ad=6.6e+11p pd=4.66e+06u as=6.6e+11p ps=4.66e+06u w=2e+06u l=150000u
X1 a_351_n200# a_303_n288# a_255_n200# a_n611_n374# sky130_fd_pr__nfet_01v8_lvt ad=6.6e+11p pd=4.66e+06u as=6.6e+11p ps=4.66e+06u w=2e+06u l=150000u
X2 a_255_n200# a_207_222# a_159_n200# a_n611_n374# sky130_fd_pr__nfet_01v8_lvt ad=0p pd=0u as=6.6e+11p ps=4.66e+06u w=2e+06u l=150000u
X3 a_n321_n200# a_n369_222# a_n417_n200# a_n611_n374# sky130_fd_pr__nfet_01v8_lvt ad=6.6e+11p pd=4.66e+06u as=6.6e+11p ps=4.66e+06u w=2e+06u l=150000u
X4 a_159_n200# a_111_n288# a_63_n200# a_n611_n374# sky130_fd_pr__nfet_01v8_lvt ad=0p pd=0u as=6.6e+11p ps=4.66e+06u w=2e+06u l=150000u
X5 a_n225_n200# a_n273_n288# a_n321_n200# a_n611_n374# sky130_fd_pr__nfet_01v8_lvt ad=6.6e+11p pd=4.66e+06u as=0p ps=0u w=2e+06u l=150000u
X6 a_447_n200# a_399_222# a_351_n200# a_n611_n374# sky130_fd_pr__nfet_01v8_lvt ad=6.2e+11p pd=4.62e+06u as=0p ps=0u w=2e+06u l=150000u
X7 a_63_n200# a_15_222# a_n33_n200# a_n611_n374# sky130_fd_pr__nfet_01v8_lvt ad=0p pd=0u as=0p ps=0u w=2e+06u l=150000u
X8 a_n129_n200# a_n177_222# a_n225_n200# a_n611_n374# sky130_fd_pr__nfet_01v8_lvt ad=0p pd=0u as=0p ps=0u w=2e+06u l=150000u
X9 a_n417_n200# a_n465_n288# a_n509_n200# a_n611_n374# sky130_fd_pr__nfet_01v8_lvt ad=0p pd=0u as=6.2e+11p ps=4.62e+06u w=2e+06u l=150000u
.ends

.subckt sky130_fd_pr__pfet_01v8_lvt_4YVKJ3 a_35_n144# a_n163_n241# a_221_n241# a_291_n144#
+ a_n221_n144# w_n487_n363# a_n35_n241# a_93_n241# a_n349_n144# a_163_n144# a_n291_n241#
+ a_n93_n144#
X0 a_163_n144# a_93_n241# a_35_n144# w_n487_n363# sky130_fd_pr__pfet_01v8_lvt ad=4.176e+11p pd=3.46e+06u as=4.176e+11p ps=3.46e+06u w=1.44e+06u l=350000u
X1 a_n93_n144# a_n163_n241# a_n221_n144# w_n487_n363# sky130_fd_pr__pfet_01v8_lvt ad=4.176e+11p pd=3.46e+06u as=4.176e+11p ps=3.46e+06u w=1.44e+06u l=350000u
X2 a_291_n144# a_221_n241# a_163_n144# w_n487_n363# sky130_fd_pr__pfet_01v8_lvt ad=4.176e+11p pd=3.46e+06u as=0p ps=0u w=1.44e+06u l=350000u
X3 a_n221_n144# a_n291_n241# a_n349_n144# w_n487_n363# sky130_fd_pr__pfet_01v8_lvt ad=0p pd=0u as=4.176e+11p ps=3.46e+06u w=1.44e+06u l=350000u
X4 a_35_n144# a_n35_n241# a_n93_n144# w_n487_n363# sky130_fd_pr__pfet_01v8_lvt ad=0p pd=0u as=0p ps=0u w=1.44e+06u l=350000u
.ends

.subckt sky130_fd_pr__pfet_01v8_lvt_MUFCUN a_483_n720# a_99_n720# a_n413_n720# a_n29_n720#
+ a_n483_n817# a_n99_n817# a_541_n817# a_157_n817# a_355_n720# a_n285_n720# a_n355_n817#
+ w_n807_n939# a_413_n817# a_29_n817# a_611_n720# a_227_n720# a_n541_n720# a_n157_n720#
+ a_n227_n817# a_n611_n817# a_285_n817# a_n669_n720#
X0 a_355_n720# a_285_n817# a_227_n720# w_n807_n939# sky130_fd_pr__pfet_01v8_lvt ad=2.088e+12p pd=1.498e+07u as=2.088e+12p ps=1.498e+07u w=7.2e+06u l=350000u
X1 a_483_n720# a_413_n817# a_355_n720# w_n807_n939# sky130_fd_pr__pfet_01v8_lvt ad=2.088e+12p pd=1.498e+07u as=0p ps=0u w=7.2e+06u l=350000u
X2 a_n29_n720# a_n99_n817# a_n157_n720# w_n807_n939# sky130_fd_pr__pfet_01v8_lvt ad=2.088e+12p pd=1.498e+07u as=2.088e+12p ps=1.498e+07u w=7.2e+06u l=350000u
X3 a_n413_n720# a_n483_n817# a_n541_n720# w_n807_n939# sky130_fd_pr__pfet_01v8_lvt ad=2.088e+12p pd=1.498e+07u as=2.088e+12p ps=1.498e+07u w=7.2e+06u l=350000u